      33
 i =        1, E =     -1576.7169854112
 Cu         0.9037400000        0.9037400000        0.9037400000
 Cu         0.9037400000        2.7112200000        2.7112200000
 Cu         2.7112200000        0.9037400000        2.7112200000
 Cu         2.7112200000        2.7112200000        0.9037400000
 Cu         4.5187000000        0.9037400000        0.9037400000
 Cu         4.5187000000        2.7112200000        2.7112200000
 Cu         6.3261800000        0.9037400000        2.7112200000
 Cu         6.3261800000        2.7112200000        0.9037400000
 Cu         0.9037400000        4.5187000000        0.9037400000
 Cu         0.9037400000        6.3261800000        2.7112200000
 Cu         2.7112200000        4.5187000000        2.7112200000
 Cu         2.7112200000        6.3261800000        0.9037400000
 Cu         4.5187000000        4.5187000000        0.9037400000
 Cu         4.5187000000        6.3261800000        2.7112200000
 Cu         6.3261800000        4.5187000000        2.7112200000
 Cu         6.3261800000        6.3261800000        0.9037400000
 Cu         0.9058209081        0.9058182999        4.5237448771
 Cu         0.9061581474        2.7052264391        6.3274913483
 Cu         2.7052184347        0.9061887216        6.3275049111
 Cu         2.7101370346        2.7101304526        4.5259993647
 Cu         4.5207488577        0.9065127072        4.5303718250
 Cu         4.5210976489        2.7045937471        6.3393897553
 Cu         6.3276110080        0.9061782167        6.3277836559
 Cu         6.3231296575        2.7098098691        4.5255826444
 Cu         0.9064483409        4.5207429781        4.5303788709
 Cu         0.9061472039        6.3276111038        6.3278012858
 Cu         2.7044834761        4.5211263881        6.3392328484
 Cu         2.7097799254        6.3231546703        4.5255324035
 Cu         4.5207391543        4.5207303559        4.5202038375
 Cu         4.5210729525        6.3301519179        6.3359584022
 Cu         6.3300214972        4.5211016415        6.3361454565
 Cu         6.3234726206        6.3234615491        4.5251178298
 Ag         4.5343284105        4.5365698032        8.2791054871
      33
 i =        2, E =     -1576.7179216896
 Cu         0.9037400000        0.9037400000        0.9037400000
 Cu         0.9037400000        2.7112200000        2.7112200000
 Cu         2.7112200000        0.9037400000        2.7112200000
 Cu         2.7112200000        2.7112200000        0.9037400000
 Cu         4.5187000000        0.9037400000        0.9037400000
 Cu         4.5187000000        2.7112200000        2.7112200000
 Cu         6.3261800000        0.9037400000        2.7112200000
 Cu         6.3261800000        2.7112200000        0.9037400000
 Cu         0.9037400000        4.5187000000        0.9037400000
 Cu         0.9037400000        6.3261800000        2.7112200000
 Cu         2.7112200000        4.5187000000        2.7112200000
 Cu         2.7112200000        6.3261800000        0.9037400000
 Cu         4.5187000000        4.5187000000        0.9037400000
 Cu         4.5187000000        6.3261800000        2.7112200000
 Cu         6.3261800000        4.5187000000        2.7112200000
 Cu         6.3261800000        6.3261800000        0.9037400000
 Cu         0.9117351926        0.9117575704        4.5434829549
 Cu         0.9161360967        2.6884629063        6.3349049984
 Cu         2.6883776455        0.9162471739        6.3349285358
 Cu         2.7089941223        2.7089606411        4.5541195930
 Cu         4.5272273243        0.9153635760        4.5764100949
 Cu         4.5290677455        2.6874095586        6.3901402091
 Cu         6.3315348172        0.9128417302        6.3404047180
 Cu         6.3146744425        2.7054774277        4.5523680597
 Cu         0.9150774428        4.5272084608        4.5764436908
 Cu         0.9127125718        6.3315814517        6.3404978388
 Cu         2.6870927724        4.5292268319        6.3892385902
 Cu         2.7053375995        6.3147919273        4.5520635514
 Cu         4.5275656764        4.5274976964        4.5284387929
 Cu         4.5250283769        6.3440166886        6.3722148172
 Cu         6.3434769812        4.5252056606        6.3730869536
 Cu         6.3155142951        6.3154808752        4.5505865929
 Ag         4.5215247625        4.5221869343        8.2250927913
      33
 i =        3, E =     -1576.7185283449
 Cu         0.9037400000        0.9037400000        0.9037400000
 Cu         0.9037400000        2.7112200000        2.7112200000
 Cu         2.7112200000        0.9037400000        2.7112200000
 Cu         2.7112200000        2.7112200000        0.9037400000
 Cu         4.5187000000        0.9037400000        0.9037400000
 Cu         4.5187000000        2.7112200000        2.7112200000
 Cu         6.3261800000        0.9037400000        2.7112200000
 Cu         6.3261800000        2.7112200000        0.9037400000
 Cu         0.9037400000        4.5187000000        0.9037400000
 Cu         0.9037400000        6.3261800000        2.7112200000
 Cu         2.7112200000        4.5187000000        2.7112200000
 Cu         2.7112200000        6.3261800000        0.9037400000
 Cu         4.5187000000        4.5187000000        0.9037400000
 Cu         4.5187000000        6.3261800000        2.7112200000
 Cu         6.3261800000        4.5187000000        2.7112200000
 Cu         6.3261800000        6.3261800000        0.9037400000
 Cu         0.9103530830        0.9103524137        4.5455614641
 Cu         0.9133381650        2.6983577552        6.3388281881
 Cu         2.6982537459        0.9134169813        6.3388355134
 Cu         2.7067828975        2.7067531681        4.5489252776
 Cu         4.5273491217        0.9134374983        4.5613287608
 Cu         4.5295166165        2.6945190865        6.3720937939
 Cu         6.3302679995        0.9111848654        6.3448685619
 Cu         6.3183387759        2.7049517511        4.5486200532
 Cu         0.9133254475        4.5273373533        4.5613969427
 Cu         0.9110832729        6.3302596479        6.3449458509
 Cu         2.6945509877        4.5296128008        6.3714951831
 Cu         2.7049088581        6.3183976374        4.5484744704
 Cu         4.5259386141        4.5259328945        4.5263218035
 Cu         4.5267458011        6.3429078529        6.3614334447
 Cu         6.3422161058        4.5268899687        6.3618038134
 Cu         6.3181484671        6.3181478240        4.5476819673
 Ag         4.5248140575        4.5259211990        8.2525459185
      33
 i =        4, E =     -1576.7192496424
 Cu         0.9037400000        0.9037400000        0.9037400000
 Cu         0.9037400000        2.7112200000        2.7112200000
 Cu         2.7112200000        0.9037400000        2.7112200000
 Cu         2.7112200000        2.7112200000        0.9037400000
 Cu         4.5187000000        0.9037400000        0.9037400000
 Cu         4.5187000000        2.7112200000        2.7112200000
 Cu         6.3261800000        0.9037400000        2.7112200000
 Cu         6.3261800000        2.7112200000        0.9037400000
 Cu         0.9037400000        4.5187000000        0.9037400000
 Cu         0.9037400000        6.3261800000        2.7112200000
 Cu         2.7112200000        4.5187000000        2.7112200000
 Cu         2.7112200000        6.3261800000        0.9037400000
 Cu         4.5187000000        4.5187000000        0.9037400000
 Cu         4.5187000000        6.3261800000        2.7112200000
 Cu         6.3261800000        4.5187000000        2.7112200000
 Cu         6.3261800000        6.3261800000        0.9037400000
 Cu         0.9117936641        0.9117487221        4.5662398950
 Cu         0.9137030282        2.7060101104        6.3599530619
 Cu         2.7058287575        0.9138516442        6.3599308163
 Cu         2.7013686503        2.7013963623        4.5602168655
 Cu         4.5321174839        0.9160691510        4.5650838365
 Cu         4.5354821837        2.6970840190        6.3707144223
 Cu         6.3307121294        0.9118321700        6.3697964411
 Cu         6.3204274257        2.7015435450        4.5614417024
 Cu         0.9161366029        4.5321052847        4.5652396817
 Cu         0.9117067025        6.3305586725        6.3698537678
 Cu         2.6974001139        4.5354524680        6.3708800475
 Cu         2.7015978470        6.3203841322        4.5615102237
 Cu         4.5264816803        4.5266620489        4.5296998206
 Cu         4.5316878636        6.3493708572        6.3667409767
 Cu         6.3478901217        4.5319271805        6.3665043921
 Cu         6.3183310966        6.3183758675        4.5616571108
 Ag         4.5236745511        4.5246719467        8.2721544102
      33
 i =        5, E =     -1576.7191064716
 Cu         0.9037400000        0.9037400000        0.9037400000
 Cu         0.9037400000        2.7112200000        2.7112200000
 Cu         2.7112200000        0.9037400000        2.7112200000
 Cu         2.7112200000        2.7112200000        0.9037400000
 Cu         4.5187000000        0.9037400000        0.9037400000
 Cu         4.5187000000        2.7112200000        2.7112200000
 Cu         6.3261800000        0.9037400000        2.7112200000
 Cu         6.3261800000        2.7112200000        0.9037400000
 Cu         0.9037400000        4.5187000000        0.9037400000
 Cu         0.9037400000        6.3261800000        2.7112200000
 Cu         2.7112200000        4.5187000000        2.7112200000
 Cu         2.7112200000        6.3261800000        0.9037400000
 Cu         4.5187000000        4.5187000000        0.9037400000
 Cu         4.5187000000        6.3261800000        2.7112200000
 Cu         6.3261800000        4.5187000000        2.7112200000
 Cu         6.3261800000        6.3261800000        0.9037400000
 Cu         0.9164324474        0.9163778828        4.5841480608
 Cu         0.9159911739        2.7057580714        6.3981025984
 Cu         2.7053110970        0.9162536118        6.3981949028
 Cu         2.6958112140        2.6958782820        4.5728749410
 Cu         4.5301817111        0.9175595361        4.5705057021
 Cu         4.5346065848        2.6983778836        6.3745227313
 Cu         6.3281063354        0.9171606122        6.3937865102
 Cu         6.3189985674        2.6978673952        4.5740481097
 Cu         0.9174372349        4.5301665509        4.5706670978
 Cu         0.9168704498        6.3275827067        6.3937813635
 Cu         2.6987685175        4.5348639700        6.3746723783
 Cu         2.6979266036        6.3190219583        4.5741915816
 Cu         4.5278196892        4.5281907851        4.5402484806
 Cu         4.5336908784        6.3627703941        6.3764091758
 Cu         6.3593212007        4.5339189762        6.3756440745
 Cu         6.3178628412        6.3179577555        4.5747842084
 Ag         4.5234226462        4.5242624670        8.2898434317
      33
 i =        6, E =     -1576.7195814614
 Cu         0.9037400000        0.9037400000        0.9037400000
 Cu         0.9037400000        2.7112200000        2.7112200000
 Cu         2.7112200000        0.9037400000        2.7112200000
 Cu         2.7112200000        2.7112200000        0.9037400000
 Cu         4.5187000000        0.9037400000        0.9037400000
 Cu         4.5187000000        2.7112200000        2.7112200000
 Cu         6.3261800000        0.9037400000        2.7112200000
 Cu         6.3261800000        2.7112200000        0.9037400000
 Cu         0.9037400000        4.5187000000        0.9037400000
 Cu         0.9037400000        6.3261800000        2.7112200000
 Cu         2.7112200000        4.5187000000        2.7112200000
 Cu         2.7112200000        6.3261800000        0.9037400000
 Cu         4.5187000000        4.5187000000        0.9037400000
 Cu         4.5187000000        6.3261800000        2.7112200000
 Cu         6.3261800000        4.5187000000        2.7112200000
 Cu         6.3261800000        6.3261800000        0.9037400000
 Cu         0.9141314403        0.9141167385        4.5714613205
 Cu         0.9158364971        2.7008583204        6.3806226862
 Cu         2.7004484651        0.9160862170        6.3806190928
 Cu         2.7006582224        2.7007028922        4.5650556581
 Cu         4.5293311267        0.9166123147        4.5683205719
 Cu         4.5326625762        2.6963092866        6.3764441233
 Cu         6.3286419024        0.9159050913        6.3803727176
 Cu         6.3177002898        2.7010804743        4.5657809199
 Cu         0.9164541210        4.5292964332        4.5684648482
 Cu         0.9156687668        6.3281311559        6.3803231596
 Cu         2.6966043350        4.5328378523        6.3764222487
 Cu         2.7010967584        6.3177364324        4.5658420357
 Cu         4.5281954165        4.5284728415        4.5428512344
 Cu         4.5311777753        6.3629774837        6.3755003767
 Cu         6.3598215991        4.5313170480        6.3749558170
 Cu         6.3172961092        6.3173531853        4.5662529736
 Ag         4.5243962945        4.5253254641        8.2793088369
      33
 i =        7, E =     -1576.7197705662
 Cu         0.9037400000        0.9037400000        0.9037400000
 Cu         0.9037400000        2.7112200000        2.7112200000
 Cu         2.7112200000        0.9037400000        2.7112200000
 Cu         2.7112200000        2.7112200000        0.9037400000
 Cu         4.5187000000        0.9037400000        0.9037400000
 Cu         4.5187000000        2.7112200000        2.7112200000
 Cu         6.3261800000        0.9037400000        2.7112200000
 Cu         6.3261800000        2.7112200000        0.9037400000
 Cu         0.9037400000        4.5187000000        0.9037400000
 Cu         0.9037400000        6.3261800000        2.7112200000
 Cu         2.7112200000        4.5187000000        2.7112200000
 Cu         2.7112200000        6.3261800000        0.9037400000
 Cu         4.5187000000        4.5187000000        0.9037400000
 Cu         4.5187000000        6.3261800000        2.7112200000
 Cu         6.3261800000        4.5187000000        2.7112200000
 Cu         6.3261800000        6.3261800000        0.9037400000
 Cu         0.9130523839        0.9130059059        4.5606071435
 Cu         0.9188637243        2.6933203466        6.3705916091
 Cu         2.6931106561        0.9189753735        6.3705979290
 Cu         2.7032194711        2.7032397431        4.5610686544
 Cu         4.5283710071        0.9167575310        4.5669981768
 Cu         4.5328527221        2.6953148582        6.3791899784
 Cu         6.3273834762        0.9175443262        6.3715775906
 Cu         6.3164905547        2.7029603036        4.5611693682
 Cu         0.9165955654        4.5283203674        4.5671433941
 Cu         0.9174082078        6.3266260008        6.3715489452
 Cu         2.6956806640        4.5329684615        6.3790580588
 Cu         2.7029851280        6.3165127543        4.5612059759
 Cu         4.5305259494        4.5307429943        4.5576557425
 Cu         4.5312977096        6.3770703339        6.3799818466
 Cu         6.3735299192        4.5310911765        6.3793164132
 Cu         6.3162890780        6.3162976971        4.5613160476
 Ag         4.5265946134        4.5276330693        8.2707138448
      33
 i =        8, E =     -1576.7198195454
 Cu         0.9037400000        0.9037400000        0.9037400000
 Cu         0.9037400000        2.7112200000        2.7112200000
 Cu         2.7112200000        0.9037400000        2.7112200000
 Cu         2.7112200000        2.7112200000        0.9037400000
 Cu         4.5187000000        0.9037400000        0.9037400000
 Cu         4.5187000000        2.7112200000        2.7112200000
 Cu         6.3261800000        0.9037400000        2.7112200000
 Cu         6.3261800000        2.7112200000        0.9037400000
 Cu         0.9037400000        4.5187000000        0.9037400000
 Cu         0.9037400000        6.3261800000        2.7112200000
 Cu         2.7112200000        4.5187000000        2.7112200000
 Cu         2.7112200000        6.3261800000        0.9037400000
 Cu         4.5187000000        4.5187000000        0.9037400000
 Cu         4.5187000000        6.3261800000        2.7112200000
 Cu         6.3261800000        4.5187000000        2.7112200000
 Cu         6.3261800000        6.3261800000        0.9037400000
 Cu         0.9135979805        0.9136135323        4.5643715824
 Cu         0.9186493191        2.6953955019        6.3772911970
 Cu         2.6954567414        0.9185201198        6.3773572352
 Cu         2.7029869469        2.7029556831        4.5619127676
 Cu         4.5287973427        0.9165092143        4.5664186657
 Cu         4.5333454627        2.6950736698        6.3786175006
 Cu         6.3263192639        0.9181661556        6.3756991153
 Cu         6.3170562723        2.7030871694        4.5617668446
 Cu         0.9165618305        4.5288144744        4.5662785018
 Cu         0.9183320535        6.3257372157        6.3756960535
 Cu         2.6952407494        4.5331548339        6.3783841183
 Cu         2.7031087961        6.3170395220        4.5617782960
 Cu         4.5320948082        4.5319875064        4.5656130862
 Cu         4.5330954013        6.3830017663        6.3819517247
 Cu         6.3817898369        4.5326834437        6.3814552677
 Cu         6.3170051430        6.3169578041        4.5617262607
 Ag         4.5286769527        4.5296116298        8.2707702279
      33
 i =        9, E =     -1576.7198328799
 Cu         0.9037400000        0.9037400000        0.9037400000
 Cu         0.9037400000        2.7112200000        2.7112200000
 Cu         2.7112200000        0.9037400000        2.7112200000
 Cu         2.7112200000        2.7112200000        0.9037400000
 Cu         4.5187000000        0.9037400000        0.9037400000
 Cu         4.5187000000        2.7112200000        2.7112200000
 Cu         6.3261800000        0.9037400000        2.7112200000
 Cu         6.3261800000        2.7112200000        0.9037400000
 Cu         0.9037400000        4.5187000000        0.9037400000
 Cu         0.9037400000        6.3261800000        2.7112200000
 Cu         2.7112200000        4.5187000000        2.7112200000
 Cu         2.7112200000        6.3261800000        0.9037400000
 Cu         4.5187000000        4.5187000000        0.9037400000
 Cu         4.5187000000        6.3261800000        2.7112200000
 Cu         6.3261800000        4.5187000000        2.7112200000
 Cu         6.3261800000        6.3261800000        0.9037400000
 Cu         0.9140949981        0.9141215428        4.5659843867
 Cu         0.9176170628        2.6980415230        6.3774595433
 Cu         2.6981121585        0.9175063590        6.3775081147
 Cu         2.7020816908        2.7020669217        4.5622736318
 Cu         4.5292348133        0.9160832438        4.5664656400
 Cu         4.5329401304        2.6950340392        6.3767946536
 Cu         6.3256166829        0.9175077657        6.3762973895
 Cu         6.3177837537        2.7024197708        4.5622270911
 Cu         0.9161679822        4.5292762430        4.5663097400
 Cu         0.9176918936        6.3253024982        6.3763351900
 Cu         2.6949908144        4.5327885401        6.3766083156
 Cu         2.7023972079        6.3177773751        4.5621860395
 Cu         4.5312769251        4.5311437049        4.5612468699
 Cu         4.5328401634        6.3774222150        6.3795046281
 Cu         6.3775233750        4.5327244787        6.3792980511
 Cu         6.3175732339        6.3175558247        4.5622439049
 Ag         4.5296722387        4.5304297644        8.2705727752
      33
 i =       10, E =     -1576.7198385616
 Cu         0.9037400000        0.9037400000        0.9037400000
 Cu         0.9037400000        2.7112200000        2.7112200000
 Cu         2.7112200000        0.9037400000        2.7112200000
 Cu         2.7112200000        2.7112200000        0.9037400000
 Cu         4.5187000000        0.9037400000        0.9037400000
 Cu         4.5187000000        2.7112200000        2.7112200000
 Cu         6.3261800000        0.9037400000        2.7112200000
 Cu         6.3261800000        2.7112200000        0.9037400000
 Cu         0.9037400000        4.5187000000        0.9037400000
 Cu         0.9037400000        6.3261800000        2.7112200000
 Cu         2.7112200000        4.5187000000        2.7112200000
 Cu         2.7112200000        6.3261800000        0.9037400000
 Cu         4.5187000000        4.5187000000        0.9037400000
 Cu         4.5187000000        6.3261800000        2.7112200000
 Cu         6.3261800000        4.5187000000        2.7112200000
 Cu         6.3261800000        6.3261800000        0.9037400000
 Cu         0.9140216923        0.9140363471        4.5651661391
 Cu         0.9178948352        2.6971833241        6.3760394391
 Cu         2.6972156301        0.9178466800        6.3760354513
 Cu         2.7022391306        2.7022444112        4.5622311723
 Cu         4.5291652292        0.9164318482        4.5666411353
 Cu         4.5329638930        2.6950046273        6.3772056357
 Cu         6.3251584835        0.9177416860        6.3755430315
 Cu         6.3176941759        2.7024447120        4.5621659901
 Cu         0.9164669048        4.5291827904        4.5665881360
 Cu         0.9178309208        6.3249491419        6.3755871051
 Cu         2.6949426053        4.5329148821        6.3770985377
 Cu         2.7024100200        6.3177010746        4.5621202724
 Cu         4.5316414693        4.5315692390        4.5624135766
 Cu         4.5328648482        6.3787643394        6.3794061037
 Cu         6.3790071590        4.5328478161        6.3793837717
 Cu         6.3175430130        6.3175372798        4.5621732887
 Ag         4.5307811086        4.5313846888        8.2686293809
      33
 i =       11, E =     -1576.7198400070
 Cu         0.9037400000        0.9037400000        0.9037400000
 Cu         0.9037400000        2.7112200000        2.7112200000
 Cu         2.7112200000        0.9037400000        2.7112200000
 Cu         2.7112200000        2.7112200000        0.9037400000
 Cu         4.5187000000        0.9037400000        0.9037400000
 Cu         4.5187000000        2.7112200000        2.7112200000
 Cu         6.3261800000        0.9037400000        2.7112200000
 Cu         6.3261800000        2.7112200000        0.9037400000
 Cu         0.9037400000        4.5187000000        0.9037400000
 Cu         0.9037400000        6.3261800000        2.7112200000
 Cu         2.7112200000        4.5187000000        2.7112200000
 Cu         2.7112200000        6.3261800000        0.9037400000
 Cu         4.5187000000        4.5187000000        0.9037400000
 Cu         4.5187000000        6.3261800000        2.7112200000
 Cu         6.3261800000        4.5187000000        2.7112200000
 Cu         6.3261800000        6.3261800000        0.9037400000
 Cu         0.9140059590        0.9139969117        4.5651589492
 Cu         0.9178960000        2.6969172678        6.3760441819
 Cu         2.6968948222        0.9179328712        6.3760214675
 Cu         2.7021491669        2.7021599894        4.5623135447
 Cu         4.5291175269        0.9166050119        4.5665683595
 Cu         4.5329009037        2.6950311952        6.3769884794
 Cu         6.3246058690        0.9178503726        6.3756019017
 Cu         6.3177199638        2.7023826485        4.5621751350
 Cu         0.9165779991        4.5291036883        4.5666198830
 Cu         0.9178235144        6.3244873554        6.3756242544
 Cu         2.6950115089        4.5329368994        6.3769837991
 Cu         2.7023640759        6.3177351205        4.5621587578
 Cu         4.5316647859        4.5316877943        4.5627034316
 Cu         4.5327960842        6.3793940930        6.3787813781
 Cu         6.3793818452        4.5328429663        6.3788738699
 Cu         6.3175449749        6.3175514180        4.5621608551
 Ag         4.5323388300        4.5327604844        8.2676005873
      33
 i =       12, E =     -1576.7197742363
 Cu         0.9037400000        0.9037400000        0.9037400000
 Cu         0.9037400000        2.7112200000        2.7112200000
 Cu         2.7112200000        0.9037400000        2.7112200000
 Cu         2.7112200000        2.7112200000        0.9037400000
 Cu         4.5187000000        0.9037400000        0.9037400000
 Cu         4.5187000000        2.7112200000        2.7112200000
 Cu         6.3261800000        0.9037400000        2.7112200000
 Cu         6.3261800000        2.7112200000        0.9037400000
 Cu         0.9037400000        4.5187000000        0.9037400000
 Cu         0.9037400000        6.3261800000        2.7112200000
 Cu         2.7112200000        4.5187000000        2.7112200000
 Cu         2.7112200000        6.3261800000        0.9037400000
 Cu         4.5187000000        4.5187000000        0.9037400000
 Cu         4.5187000000        6.3261800000        2.7112200000
 Cu         6.3261800000        4.5187000000        2.7112200000
 Cu         6.3261800000        6.3261800000        0.9037400000
 Cu         0.9140059590        0.9139969117        4.5651589492
 Cu         0.9178960000        2.6969172678        6.3760441819
 Cu         2.6968948222        0.9179328712        6.3760214675
 Cu         2.7021491669        2.7021599894        4.5623135447
 Cu         4.5291175269        0.9166050119        4.5665683595
 Cu         4.5329009037        2.6950311952        6.3769884794
 Cu         6.3246058690        0.9178503726        6.3756019017
 Cu         6.3177199638        2.7023826485        4.5621751350
 Cu         0.9165779991        4.5291036883        4.5666198830
 Cu         0.9178235144        6.3244873554        6.3756242544
 Cu         2.6950115089        4.5329368994        6.3769837991
 Cu         2.7023640759        6.3177351205        4.5621587578
 Cu         4.5316647859        4.5316877943        4.5627034316
 Cu         4.5327960842        6.3793940930        6.3787813781
 Cu         6.3793818452        4.5328429663        6.3788738699
 Cu         6.3175449749        6.3175514180        4.5621608551
 Ag         4.5323388300        4.5327604844        8.2676005873
