      33
 i =        1, E =     -1576.7169301950
 Cu         0.9037400000        0.9037400000        0.9037400000
 Cu         0.9037400000        2.7112200000        2.7112200000
 Cu         2.7112200000        0.9037400000        2.7112200000
 Cu         2.7112200000        2.7112200000        0.9037400000
 Cu         4.5187000000        0.9037400000        0.9037400000
 Cu         4.5187000000        2.7112200000        2.7112200000
 Cu         6.3261800000        0.9037400000        2.7112200000
 Cu         6.3261800000        2.7112200000        0.9037400000
 Cu         0.9037400000        4.5187000000        0.9037400000
 Cu         0.9037400000        6.3261800000        2.7112200000
 Cu         2.7112200000        4.5187000000        2.7112200000
 Cu         2.7112200000        6.3261800000        0.9037400000
 Cu         4.5187000000        4.5187000000        0.9037400000
 Cu         4.5187000000        6.3261800000        2.7112200000
 Cu         6.3261800000        4.5187000000        2.7112200000
 Cu         6.3261800000        6.3261800000        0.9037400000
 Cu         0.9063504265        0.9061955856        4.5247757961
 Cu         0.8982836998        2.7088452062        6.3336928928
 Cu         2.7084992732        0.8999551803        6.3360912994
 Cu         2.7092936349        2.7091874652        4.5201298050
 Cu         4.5200078526        0.9069554159        4.5258281421
 Cu         4.5239614067        2.7087860218        6.3411846909
 Cu         6.3233870445        0.9022866005        6.3277676657
 Cu         6.3226531964        2.7091756455        4.5302698645
 Cu         0.9066771704        4.5203882426        4.5252239120
 Cu         0.9023203466        6.3237589369        6.3279944820
 Cu         2.7084397863        4.5252021598        6.3394288367
 Cu         2.7092457470        6.3234252988        4.5304187095
 Cu         4.5196541014        4.5195960850        4.5262836322
 Cu         4.5245879020        6.3237312909        6.3273199797
 Cu         6.3233646630        4.5247197674        6.3274644837
 Cu         6.3241327000        6.3241017168        4.5237525178
 Ag         2.6665321715        2.6938538608        8.2798072619
      33
 i =        2, E =     -1576.7181076758
 Cu         0.9037400000        0.9037400000        0.9037400000
 Cu         0.9037400000        2.7112200000        2.7112200000
 Cu         2.7112200000        0.9037400000        2.7112200000
 Cu         2.7112200000        2.7112200000        0.9037400000
 Cu         4.5187000000        0.9037400000        0.9037400000
 Cu         4.5187000000        2.7112200000        2.7112200000
 Cu         6.3261800000        0.9037400000        2.7112200000
 Cu         6.3261800000        2.7112200000        0.9037400000
 Cu         0.9037400000        4.5187000000        0.9037400000
 Cu         0.9037400000        6.3261800000        2.7112200000
 Cu         2.7112200000        4.5187000000        2.7112200000
 Cu         2.7112200000        6.3261800000        0.9037400000
 Cu         4.5187000000        4.5187000000        0.9037400000
 Cu         4.5187000000        6.3261800000        2.7112200000
 Cu         6.3261800000        4.5187000000        2.7112200000
 Cu         6.3261800000        6.3261800000        0.9037400000
 Cu         0.9126935886        0.9122810219        4.5449595484
 Cu         0.8829702747        2.7057199185        6.3576774385
 Cu         2.7039567567        0.8889319621        6.3669590115
 Cu         2.7041525596        2.7035067477        4.5271978308
 Cu         4.5232546128        0.9146876858        4.5495218688
 Cu         4.5362476513        2.7021989889        6.3911846909
 Cu         6.3169145241        0.8989111106        6.3381173406
 Cu         6.3131070236        2.7035702041        4.5687761240
 Cu         0.9135423638        4.5247605290        4.5464074157
 Cu         0.8985380762        6.3182864667        6.3391669406
 Cu         2.7006073852        4.5396185598        6.3823135157
 Cu         2.7037797236        6.3160628666        4.5693562440
 Cu         4.5200970104        4.5198114175        4.5511840230
 Cu         4.5382648008        6.3152809516        6.3331230794
 Cu         6.3140691937        4.5391715377        6.3332490103
 Cu         6.3188961642        6.3191040139        4.5402785919
 Ag         2.6938607954        2.7056096855        8.2342744718
      33
 i =        3, E =     -1576.7185905866
 Cu         0.9037400000        0.9037400000        0.9037400000
 Cu         0.9037400000        2.7112200000        2.7112200000
 Cu         2.7112200000        0.9037400000        2.7112200000
 Cu         2.7112200000        2.7112200000        0.9037400000
 Cu         4.5187000000        0.9037400000        0.9037400000
 Cu         4.5187000000        2.7112200000        2.7112200000
 Cu         6.3261800000        0.9037400000        2.7112200000
 Cu         6.3261800000        2.7112200000        0.9037400000
 Cu         0.9037400000        4.5187000000        0.9037400000
 Cu         0.9037400000        6.3261800000        2.7112200000
 Cu         2.7112200000        4.5187000000        2.7112200000
 Cu         2.7112200000        6.3261800000        0.9037400000
 Cu         4.5187000000        4.5187000000        0.9037400000
 Cu         4.5187000000        6.3261800000        2.7112200000
 Cu         6.3261800000        4.5187000000        2.7112200000
 Cu         6.3261800000        6.3261800000        0.9037400000
 Cu         0.9121695739        0.9121721151        4.5496157104
 Cu         0.8792837685        2.7038984610        6.3609615888
 Cu         2.7014272993        0.8883001097        6.3652044789
 Cu         2.7034519549        2.7035221522        4.5277135658
 Cu         4.5247738877        0.9122034504        4.5525455968
 Cu         4.5359045540        2.6991947276        6.3815607417
 Cu         6.3175017037        0.8986730857        6.3464479940
 Cu         6.3141841037        2.7008709067        4.5649397460
 Cu         0.9114775550        4.5253522416        4.5504453337
 Cu         0.8987903190        6.3187047880        6.3474534683
 Cu         2.6980733763        4.5358147276        6.3746862245
 Cu         2.7010487442        6.3153870083        4.5657089493
 Cu         4.5229397574        4.5225773278        4.5525388018
 Cu         4.5318508656        6.3156952000        6.3391133767
 Cu         6.3146058146        4.5332209089        6.3389852110
 Cu         6.3192479267        6.3192581311        4.5473825154
 Ag         2.6930263289        2.7054960858        8.2499678623
      33
 i =        4, E =     -1576.7186825425
 Cu         0.9037400000        0.9037400000        0.9037400000
 Cu         0.9037400000        2.7112200000        2.7112200000
 Cu         2.7112200000        0.9037400000        2.7112200000
 Cu         2.7112200000        2.7112200000        0.9037400000
 Cu         4.5187000000        0.9037400000        0.9037400000
 Cu         4.5187000000        2.7112200000        2.7112200000
 Cu         6.3261800000        0.9037400000        2.7112200000
 Cu         6.3261800000        2.7112200000        0.9037400000
 Cu         0.9037400000        4.5187000000        0.9037400000
 Cu         0.9037400000        6.3261800000        2.7112200000
 Cu         2.7112200000        4.5187000000        2.7112200000
 Cu         2.7112200000        6.3261800000        0.9037400000
 Cu         4.5187000000        4.5187000000        0.9037400000
 Cu         4.5187000000        6.3261800000        2.7112200000
 Cu         6.3261800000        4.5187000000        2.7112200000
 Cu         6.3261800000        6.3261800000        0.9037400000
 Cu         0.9118461092        0.9132970296        4.5804961941
 Cu         0.8534023529        2.6951591201        6.3864300204
 Cu         2.6904149039        0.8813159641        6.3732309030
 Cu         2.6980098633        2.7019523920        4.5358117189
 Cu         4.5332852303        0.9062391944        4.5763521865
 Cu         4.5369322001        2.6863884223        6.3597305712
 Cu         6.3158230067        0.8960050633        6.3964479940
 Cu         6.3141564631        2.6903453312        4.5678491500
 Cu         0.9072590431        4.5308791388        4.5787771033
 Cu         0.8993021073        6.3175546751        6.3969938280
 Cu         2.6870763283        4.5276231591        6.3649722885
 Cu         2.6904827056        6.3106060703        4.5698485253
 Cu         4.5354295038        4.5358066441        4.5711002591
 Cu         4.5137184253        6.3151320235        6.3796223878
 Cu         6.3130310164        4.5171620007        6.3784293382
 Cu         6.3174009030        6.3165176521        4.5890179098
 Ag         2.7005578099        2.7095628834        8.2934029200
      33
 i =        5, E =     -1576.7194445436
 Cu         0.9037400000        0.9037400000        0.9037400000
 Cu         0.9037400000        2.7112200000        2.7112200000
 Cu         2.7112200000        0.9037400000        2.7112200000
 Cu         2.7112200000        2.7112200000        0.9037400000
 Cu         4.5187000000        0.9037400000        0.9037400000
 Cu         4.5187000000        2.7112200000        2.7112200000
 Cu         6.3261800000        0.9037400000        2.7112200000
 Cu         6.3261800000        2.7112200000        0.9037400000
 Cu         0.9037400000        4.5187000000        0.9037400000
 Cu         0.9037400000        6.3261800000        2.7112200000
 Cu         2.7112200000        4.5187000000        2.7112200000
 Cu         2.7112200000        6.3261800000        0.9037400000
 Cu         4.5187000000        4.5187000000        0.9037400000
 Cu         4.5187000000        6.3261800000        2.7112200000
 Cu         6.3261800000        4.5187000000        2.7112200000
 Cu         6.3261800000        6.3261800000        0.9037400000
 Cu         0.9113244444        0.9120297407        4.5634269441
 Cu         0.8620172374        2.7001390783        6.3746883434
 Cu         2.6982255937        0.8828952853        6.3691477903
 Cu         2.7007860196        2.7025636115        4.5373074819
 Cu         4.5283056110        0.9112728502        4.5623022101
 Cu         4.5346532224        2.6974708987        6.3723587712
 Cu         6.3150596222        0.8972510767        6.3726624163
 Cu         6.3139257049        2.6998331831        4.5643328927
 Cu         0.9109430903        4.5277553418        4.5628716303
 Cu         0.9003281664        6.3172115502        6.3730844097
 Cu         2.6961245830        4.5317339339        6.3706131145
 Cu         2.6998322495        6.3144944575        4.5648001852
 Cu         4.5272599608        4.5275769000        4.5595094828
 Cu         4.5239327135        6.3152088403        6.3633201204
 Cu         6.3135549404        4.5276262713        6.3633474513
 Cu         6.3174989621        6.3173095597        4.5672526712
 Ag         2.6958755915        2.7068180934        8.2774511300
      33
 i =        6, E =     -1576.7196460757
 Cu         0.9037400000        0.9037400000        0.9037400000
 Cu         0.9037400000        2.7112200000        2.7112200000
 Cu         2.7112200000        0.9037400000        2.7112200000
 Cu         2.7112200000        2.7112200000        0.9037400000
 Cu         4.5187000000        0.9037400000        0.9037400000
 Cu         4.5187000000        2.7112200000        2.7112200000
 Cu         6.3261800000        0.9037400000        2.7112200000
 Cu         6.3261800000        2.7112200000        0.9037400000
 Cu         0.9037400000        4.5187000000        0.9037400000
 Cu         0.9037400000        6.3261800000        2.7112200000
 Cu         2.7112200000        4.5187000000        2.7112200000
 Cu         2.7112200000        6.3261800000        0.9037400000
 Cu         4.5187000000        4.5187000000        0.9037400000
 Cu         4.5187000000        6.3261800000        2.7112200000
 Cu         6.3261800000        4.5187000000        2.7112200000
 Cu         6.3261800000        6.3261800000        0.9037400000
 Cu         0.9122424823        0.9126539792        4.5622429612
 Cu         0.8519385050        2.6986577433        6.3779385877
 Cu         2.6982102473        0.8785607329        6.3717842432
 Cu         2.7003744749        2.7021554626        4.5466304987
 Cu         4.5276361907        0.9120211192        4.5628507822
 Cu         4.5354259261        2.6982738232        6.3779501863
 Cu         6.3130430534        0.8974336369        6.3711728629
 Cu         6.3129590581        2.7015403085        4.5652640723
 Cu         0.9113030732        4.5273576048        4.5631117736
 Cu         0.9026266120        6.3149342385        6.3714590878
 Cu         2.6963514061        4.5313437653        6.3741922585
 Cu         2.7017115228        6.3141029145        4.5659407412
 Cu         4.5276939352        4.5277000740        4.5622923466
 Cu         4.5273335954        6.3140874731        6.3732172665
 Cu         6.3125341211        4.5314361162        6.3744490603
 Cu         6.3161050199        6.3158871668        4.5655961382
 Ag         2.6960326268        2.7066675962        8.2783405834
      33
 i =        7, E =     -1576.7197388012
 Cu         0.9037400000        0.9037400000        0.9037400000
 Cu         0.9037400000        2.7112200000        2.7112200000
 Cu         2.7112200000        0.9037400000        2.7112200000
 Cu         2.7112200000        2.7112200000        0.9037400000
 Cu         4.5187000000        0.9037400000        0.9037400000
 Cu         4.5187000000        2.7112200000        2.7112200000
 Cu         6.3261800000        0.9037400000        2.7112200000
 Cu         6.3261800000        2.7112200000        0.9037400000
 Cu         0.9037400000        4.5187000000        0.9037400000
 Cu         0.9037400000        6.3261800000        2.7112200000
 Cu         2.7112200000        4.5187000000        2.7112200000
 Cu         2.7112200000        6.3261800000        0.9037400000
 Cu         4.5187000000        4.5187000000        0.9037400000
 Cu         4.5187000000        6.3261800000        2.7112200000
 Cu         6.3261800000        4.5187000000        2.7112200000
 Cu         6.3261800000        6.3261800000        0.9037400000
 Cu         0.9131923872        0.9129318936        4.5628630575
 Cu         0.8423745513        2.6960286456        6.3833583748
 Cu         2.6988457230        0.8651451452        6.3775562939
 Cu         2.6987686692        2.6995051282        4.5653116102
 Cu         4.5276545221        0.9125756216        4.5634107603
 Cu         4.5366628247        2.6969220116        6.3825757946
 Cu         6.3119279252        0.8983070932        6.3750106820
 Cu         6.3131734063        2.7010492807        4.5676473269
 Cu         0.9126102803        4.5274657951        4.5635381913
 Cu         0.9061888784        6.3115203165        6.3753034984
 Cu         2.6972148571        4.5335226713        6.3793903226
 Cu         2.7015707826        6.3137653262        4.5679383311
 Cu         4.5277716239        4.5277657761        4.5641861561
 Cu         4.5347678619        6.3111447456        6.3807425202
 Cu         6.3109881999        4.5354294294        6.3813111605
 Cu         6.3158034724        6.3154003142        4.5643653136
 Ag         2.6958143574        2.7056087607        8.2755251971
      33
 i =        8, E =     -1576.7198050261
 Cu         0.9037400000        0.9037400000        0.9037400000
 Cu         0.9037400000        2.7112200000        2.7112200000
 Cu         2.7112200000        0.9037400000        2.7112200000
 Cu         2.7112200000        2.7112200000        0.9037400000
 Cu         4.5187000000        0.9037400000        0.9037400000
 Cu         4.5187000000        2.7112200000        2.7112200000
 Cu         6.3261800000        0.9037400000        2.7112200000
 Cu         6.3261800000        2.7112200000        0.9037400000
 Cu         0.9037400000        4.5187000000        0.9037400000
 Cu         0.9037400000        6.3261800000        2.7112200000
 Cu         2.7112200000        4.5187000000        2.7112200000
 Cu         2.7112200000        6.3261800000        0.9037400000
 Cu         4.5187000000        4.5187000000        0.9037400000
 Cu         4.5187000000        6.3261800000        2.7112200000
 Cu         6.3261800000        4.5187000000        2.7112200000
 Cu         6.3261800000        6.3261800000        0.9037400000
 Cu         0.9129832502        0.9126706344        4.5623111195
 Cu         0.8486247805        2.6961693786        6.3816534600
 Cu         2.6985780722        0.8581345432        6.3784457327
 Cu         2.6988873827        2.6983572361        4.5643766023
 Cu         4.5275718291        0.9126154460        4.5626598257
 Cu         4.5351052345        2.6963890976        6.3810876467
 Cu         6.3125543069        0.8999919157        6.3756430612
 Cu         6.3136947977        2.7009305364        4.5680651781
 Cu         0.9127852628        4.5276437196        4.5624382414
 Cu         0.9066115320        6.3110771978        6.3758519797
 Cu         2.6976668638        4.5342392539        6.3786241350
 Cu         2.7010504853        6.3135691357        4.5672358407
 Cu         4.5278704976        4.5277656879        4.5635240467
 Cu         4.5343784498        6.3112750970        6.3792535073
 Cu         6.3120432171        4.5339225806        6.3800742638
 Cu         6.3156712990        6.3155352635        4.5644827964
 Ag         2.6953875115        2.7040405574        8.2729375008
      33
 i =        9, E =     -1576.7198263940
 Cu         0.9037400000        0.9037400000        0.9037400000
 Cu         0.9037400000        2.7112200000        2.7112200000
 Cu         2.7112200000        0.9037400000        2.7112200000
 Cu         2.7112200000        2.7112200000        0.9037400000
 Cu         4.5187000000        0.9037400000        0.9037400000
 Cu         4.5187000000        2.7112200000        2.7112200000
 Cu         6.3261800000        0.9037400000        2.7112200000
 Cu         6.3261800000        2.7112200000        0.9037400000
 Cu         0.9037400000        4.5187000000        0.9037400000
 Cu         0.9037400000        6.3261800000        2.7112200000
 Cu         2.7112200000        4.5187000000        2.7112200000
 Cu         2.7112200000        6.3261800000        0.9037400000
 Cu         4.5187000000        4.5187000000        0.9037400000
 Cu         4.5187000000        6.3261800000        2.7112200000
 Cu         6.3261800000        4.5187000000        2.7112200000
 Cu         6.3261800000        6.3261800000        0.9037400000
 Cu         0.9125596787        0.9124398574        4.5621165527
 Cu         0.8520355316        2.6966861133        6.3786861855
 Cu         2.6967344205        0.8453517165        6.3806194885
 Cu         2.6980369485        2.6971003415        4.5632928374
 Cu         4.5272756096        0.9125766187        4.5622231176
 Cu         4.5335283643        2.6963782650        6.3776184417
 Cu         6.3122781660        0.9035348187        6.3763665489
 Cu         6.3132903666        2.7007298633        4.5670832665
 Cu         0.9125214501        4.5278360758        4.5616590170
 Cu         0.9066426876        6.3111553415        6.3768253535
 Cu         2.6969680921        4.5348553278        6.3774187456
 Cu         2.7005037711        6.3129062971        4.5665332061
 Cu         4.5277837483        4.5278939413        4.5622018488
 Cu         4.5331789336        6.3114535344        6.3761690250
 Cu         6.3119758931        4.5329715436        6.3760620784
 Cu         6.3157824984        6.3160287237        4.5652176386
 Ag         2.6947989380        2.6999318268        8.2675513226
      33
 i =       10, E =     -1576.7198338107
 Cu         0.9037400000        0.9037400000        0.9037400000
 Cu         0.9037400000        2.7112200000        2.7112200000
 Cu         2.7112200000        0.9037400000        2.7112200000
 Cu         2.7112200000        2.7112200000        0.9037400000
 Cu         4.5187000000        0.9037400000        0.9037400000
 Cu         4.5187000000        2.7112200000        2.7112200000
 Cu         6.3261800000        0.9037400000        2.7112200000
 Cu         6.3261800000        2.7112200000        0.9037400000
 Cu         0.9037400000        4.5187000000        0.9037400000
 Cu         0.9037400000        6.3261800000        2.7112200000
 Cu         2.7112200000        4.5187000000        2.7112200000
 Cu         2.7112200000        6.3261800000        0.9037400000
 Cu         4.5187000000        4.5187000000        0.9037400000
 Cu         4.5187000000        6.3261800000        2.7112200000
 Cu         6.3261800000        4.5187000000        2.7112200000
 Cu         6.3261800000        6.3261800000        0.9037400000
 Cu         0.9123582819        0.9124622993        4.5619884665
 Cu         0.8518305617        2.6976394853        6.3776208836
 Cu         2.6970979792        0.8529840716        6.3786165157
 Cu         2.6984533785        2.6987094919        4.5600028881
 Cu         4.5274687085        0.9123467020        4.5619973731
 Cu         4.5346907009        2.6973244499        6.3763957625
 Cu         6.3123886114        0.9034429627        6.3753231293
 Cu         6.3133200058        2.7006620203        4.5660245917
 Cu         0.9121449121        4.5277051533        4.5618123577
 Cu         0.9060074230        6.3125708360        6.3757184069
 Cu         2.6969181046        4.5348054478        6.3764086377
 Cu         2.7007353468        6.3135942746        4.5664772990
 Cu         4.5277905026        4.5279242909        4.5618074889
 Cu         4.5319254645        6.3125090455        6.3749999786
 Cu         6.3121090784        4.5325035668        6.3747201386
 Cu         6.3160100994        6.3159608175        4.5652565024
 Ag         2.6945181598        2.6995547885        8.2683300777
      33
 i =       11, E =     -1576.7198393165
 Cu         0.9037400000        0.9037400000        0.9037400000
 Cu         0.9037400000        2.7112200000        2.7112200000
 Cu         2.7112200000        0.9037400000        2.7112200000
 Cu         2.7112200000        2.7112200000        0.9037400000
 Cu         4.5187000000        0.9037400000        0.9037400000
 Cu         4.5187000000        2.7112200000        2.7112200000
 Cu         6.3261800000        0.9037400000        2.7112200000
 Cu         6.3261800000        2.7112200000        0.9037400000
 Cu         0.9037400000        4.5187000000        0.9037400000
 Cu         0.9037400000        6.3261800000        2.7112200000
 Cu         2.7112200000        4.5187000000        2.7112200000
 Cu         2.7112200000        6.3261800000        0.9037400000
 Cu         4.5187000000        4.5187000000        0.9037400000
 Cu         4.5187000000        6.3261800000        2.7112200000
 Cu         6.3261800000        4.5187000000        2.7112200000
 Cu         6.3261800000        6.3261800000        0.9037400000
 Cu         0.9124874342        0.9124626484        4.5620378473
 Cu         0.8505890219        2.6970122622        6.3786267990
 Cu         2.6974251010        0.8513555318        6.3789682940
 Cu         2.6984219646        2.6982965177        4.5629703209
 Cu         4.5275759445        0.9123563078        4.5621934391
 Cu         4.5350174658        2.6969684240        6.3777434724
 Cu         6.3122556803        0.9038570359        6.3754462639
 Cu         6.3134131169        2.7008146206        4.5666124132
 Cu         0.9123066424        4.5275275092        4.5620862102
 Cu         0.9061616602        6.3119178380        6.3756078146
 Cu         2.6971856078        4.5350066597        6.3770718437
 Cu         2.7009315004        6.3134689307        4.5665768626
 Cu         4.5278725037        4.5277420489        4.5624545103
 Cu         4.5332856311        6.3119534206        6.3765670090
 Cu         6.3121121343        4.5328743518        6.3767319715
 Cu         6.3158638967        6.3157231804        4.5650551841
 Ag         2.6944259350        2.6988648243        8.2680935201
      33
 i =       12, E =     -1576.7198404332
 Cu         0.9037400000        0.9037400000        0.9037400000
 Cu         0.9037400000        2.7112200000        2.7112200000
 Cu         2.7112200000        0.9037400000        2.7112200000
 Cu         2.7112200000        2.7112200000        0.9037400000
 Cu         4.5187000000        0.9037400000        0.9037400000
 Cu         4.5187000000        2.7112200000        2.7112200000
 Cu         6.3261800000        0.9037400000        2.7112200000
 Cu         6.3261800000        2.7112200000        0.9037400000
 Cu         0.9037400000        4.5187000000        0.9037400000
 Cu         0.9037400000        6.3261800000        2.7112200000
 Cu         2.7112200000        4.5187000000        2.7112200000
 Cu         2.7112200000        6.3261800000        0.9037400000
 Cu         4.5187000000        4.5187000000        0.9037400000
 Cu         4.5187000000        6.3261800000        2.7112200000
 Cu         6.3261800000        4.5187000000        2.7112200000
 Cu         6.3261800000        6.3261800000        0.9037400000
 Cu         0.9124027434        0.9123806338        4.5620974844
 Cu         0.8506651064        2.6970671663        6.3781628760
 Cu         2.6970775252        0.8503738210        6.3787936992
 Cu         2.6983037077        2.6982164557        4.5626171204
 Cu         4.5275684262        0.9122968459        4.5622360273
 Cu         4.5347394579        2.6969142762        6.3773166225
 Cu         6.3121244631        0.9047243502        6.3756845517
 Cu         6.3133195488        2.7007779376        4.5665588543
 Cu         0.9122633529        4.5275711975        4.5621172320
 Cu         0.9059709355        6.3119285919        6.3758242904
 Cu         2.6970067287        4.5348733068        6.3769464530
 Cu         2.7008142758        6.3133409044        4.5665399413
 Cu         4.5278205200        4.5277602527        4.5623909031
 Cu         4.5329992389        6.3119651992        6.3762438446
 Cu         6.3119897196        4.5328916611        6.3762122124
 Cu         6.3158877370        6.3158702346        4.5652460052
 Ag         2.6942456946        2.6975818900        8.2673547778
      33
 i =       13, E =     -1576.7197559604
 Cu         0.9037400000        0.9037400000        0.9037400000
 Cu         0.9037400000        2.7112200000        2.7112200000
 Cu         2.7112200000        0.9037400000        2.7112200000
 Cu         2.7112200000        2.7112200000        0.9037400000
 Cu         4.5187000000        0.9037400000        0.9037400000
 Cu         4.5187000000        2.7112200000        2.7112200000
 Cu         6.3261800000        0.9037400000        2.7112200000
 Cu         6.3261800000        2.7112200000        0.9037400000
 Cu         0.9037400000        4.5187000000        0.9037400000
 Cu         0.9037400000        6.3261800000        2.7112200000
 Cu         2.7112200000        4.5187000000        2.7112200000
 Cu         2.7112200000        6.3261800000        0.9037400000
 Cu         4.5187000000        4.5187000000        0.9037400000
 Cu         4.5187000000        6.3261800000        2.7112200000
 Cu         6.3261800000        4.5187000000        2.7112200000
 Cu         6.3261800000        6.3261800000        0.9037400000
 Cu         0.9124027434        0.9123806338        4.5620974844
 Cu         0.8506651064        2.6970671663        6.3781628760
 Cu         2.6970775252        0.8503738210        6.3787936992
 Cu         2.6983037077        2.6982164557        4.5626171204
 Cu         4.5275684262        0.9122968459        4.5622360273
 Cu         4.5347394579        2.6969142762        6.3773166225
 Cu         6.3121244631        0.9047243502        6.3756845517
 Cu         6.3133195488        2.7007779376        4.5665588543
 Cu         0.9122633529        4.5275711975        4.5621172320
 Cu         0.9059709355        6.3119285919        6.3758242904
 Cu         2.6970067287        4.5348733068        6.3769464530
 Cu         2.7008142758        6.3133409044        4.5665399413
 Cu         4.5278205200        4.5277602527        4.5623909031
 Cu         4.5329992389        6.3119651992        6.3762438446
 Cu         6.3119897196        4.5328916611        6.3762122124
 Cu         6.3158877370        6.3158702346        4.5652460052
 Ag         2.6942456946        2.6975818900        8.2673547778
