%mem=20GB
%nprocshared=8
%chk=C:\Users\Sobereva\Desktop\A.chk
# pbepbe/3-21g/auto

Title Card Required

0 2
 Cu                 0.90374000    0.90374000    0.90374000
 Cu                 0.90374000    2.71122000    2.71122000
 Cu                 2.71122000    0.90374000    2.71122000
 Cu                 2.71122000    2.71122000    0.90374000
 Cu                 4.51870000    0.90374000    0.90374000
 Cu                 4.51870000    2.71122000    2.71122000
 Cu                 6.32618000    0.90374000    2.71122000
 Cu                 6.32618000    2.71122000    0.90374000
 Cu                 0.90374000    4.51870000    0.90374000
 Cu                 0.90374000    6.32618000    2.71122000
 Cu                 2.71122000    4.51870000    2.71122000
 Cu                 2.71122000    6.32618000    0.90374000
 Cu                 4.51870000    4.51870000    0.90374000
 Cu                 4.51870000    6.32618000    2.71122000
 Cu                 6.32618000    4.51870000    2.71122000
 Cu                 6.32618000    6.32618000    0.90374000
 Cu                 0.90374000    0.90374000    4.51870000
 Cu                 0.90374000    2.71122000    6.32618000
 Cu                 2.71122000    0.90374000    6.32618000
 Cu                 2.71122000    2.71122000    4.51870000
 Cu                 4.51870000    0.90374000    4.51870000
 Cu                 4.51870000    2.71122000    6.32618000
 Cu                 6.32618000    0.90374000    6.32618000
 Cu                 6.32618000    2.71122000    4.51870000
 Cu                 0.90374000    4.51870000    4.51870000
 Cu                 0.90374000    6.32618000    6.32618000
 Cu                 2.71122000    4.51870000    6.32618000
 Cu                 2.71122000    6.32618000    4.51870000
 Cu                 4.51870000    4.51870000    4.51870000
 Cu                 4.51870000    6.32618000    6.32618000
 Cu                 6.32618000    4.51870000    6.32618000
 Cu                 6.32618000    6.32618000    4.51870000
 Ag                 2.65745205    2.68994687    8.30566860
 Tv                 7.22992000    0.00000000    0.00000000
 Tv                 0.00000000    7.22992000    0.00000000
 Tv                 0.00000000    0.00000000   20.00000000

